dss/import/capas-pablo/Formato-interfaz/compl-pvsy-linegeom-loadsh-csv-gen-cap-xfmr/Transformer_processed.dss
New Transformer.idseta_2 phases=3 windings=2 XHL=2.0 Buses[632.1.2.3, x_2.1.2.3] conns=[delta, wye] kVs=[13.2, 0.38] kVAs=[16.0, 16.0] %imag=0.5 %loadloss=1.5 %noloadloss=0.25 ppm_antifloat=0
New Transformer.idseta_10 phases=3 windings=2 XHL=2.0 Buses[1202.1.2.3, x_10.1.2.3] conns=[delta, wye] kVs=[13.2, 0.38] kVAs=[200.0, 200.0] %imag=0.5 %loadloss=1.5 %noloadloss=0.25 ppm_antifloat=0
New Transformer.idseta_79 phases=3 windings=2 XHL=2.0 Buses[1198.1.2.3, x_79.1.2.3] conns=[delta, wye] kVs=[13.2, 0.38] kVAs=[125.0, 125.0] %imag=0.5 %loadloss=1.5 %noloadloss=0.25 ppm_antifloat=0
New Transformer.idseta_80 phases=3 windings=2 XHL=2.0 Buses[1229.1.2.3, x_80.1.2.3] conns=[delta, wye] kVs=[13.2, 0.38] kVAs=[200.0, 200.0] %imag=0.5 %loadloss=1.5 %noloadloss=0.25 ppm_antifloat=0
New Transformer.idseta_84 phases=3 windings=2 XHL=2.0 Buses[1216.1.2.3, x_84.1.2.3] conns=[delta, wye] kVs=[13.2, 0.38] kVAs=[100.0, 100.0] %imag=0.5 %loadloss=1.5 %noloadloss=0.25 ppm_antifloat=0
New Transformer.idseta_85 phases=3 windings=2 XHL=2.0 Buses[1569.1.2.3, x_85.1.2.3] conns=[delta, wye] kVs=[13.2, 0.38] kVAs=[250.0, 250.0] %imag=0.5 %loadloss=1.5 %noloadloss=0.25 ppm_antifloat=0
New Transformer.idseta_86 phases=3 windings=2 XHL=2.0 Buses[1251.1.2.3, x_86.1.2.3] conns=[delta, wye] kVs=[13.2, 0.38] kVAs=[160.0, 160.0] %imag=0.5 %loadloss=1.5 %noloadloss=0.25 ppm_antifloat=0
New Transformer.idseta_87 phases=3 windings=2 XHL=2.0 Buses[1261.1.2.3, x_87.1.2.3] conns=[delta, wye] kVs=[13.2, 0.38] kVAs=[160.0, 160.0] %imag=0.5 %loadloss=1.5 %noloadloss=0.25 ppm_antifloat=0
New Transformer.idseta_200 phases=3 windings=2 XHL=2.0 Buses[1253.1.2.3, x_200.1.2.3] conns=[delta, wye] kVs=[13.2, 0.38] kVAs=[200.0, 200.0] %imag=0.5 %loadloss=1.5 %noloadloss=0.25 ppm_antifloat=0
New Transformer.idseta_278 phases=3 windings=2 XHL=2.0 Buses[1042.1.2.3, x_278.1.2.3] conns=[delta, wye] kVs=[13.2, 0.38] kVAs=[63.0, 63.0] %imag=0.5 %loadloss=1.5 %noloadloss=0.25 ppm_antifloat=0
New Transformer.idseta_337 phases=3 windings=2 XHL=2.0 Buses[722.1.2.3, x_337.1.2.3] conns=[delta, wye] kVs=[13.2, 0.38] kVAs=[100.0, 100.0] %imag=0.5 %loadloss=1.5 %noloadloss=0.25 ppm_antifloat=0
New Transformer.idseta_531 phases=3 windings=2 XHL=2.0 Buses[712.1.2.3, x_531.1.2.3] conns=[delta, wye] kVs=[13.2, 0.38] kVAs=[5.0, 5.0] %imag=0.5 %loadloss=1.5 %noloadloss=0.25 ppm_antifloat=0
New Transformer.idseta_540 phases=3 windings=2 XHL=2.0 Buses[79.1.2.3, x_540.1.2.3] conns=[delta, wye] kVs=[13.2, 0.38] kVAs=[10.0, 10.0] %imag=0.5 %loadloss=1.5 %noloadloss=0.25 ppm_antifloat=0
New Transformer.idseta_541 phases=3 windings=2 XHL=2.0 Buses[76.1.2.3, x_541.1.2.3] conns=[delta, wye] kVs=[13.2, 0.38] kVAs=[25.0, 25.0] %imag=0.5 %loadloss=1.5 %noloadloss=0.25 ppm_antifloat=0
New Transformer.idseta_551 phases=3 windings=2 XHL=2.0 Buses[979.1.2.3, x_551.1.2.3] conns=[delta, wye] kVs=[13.2, 0.38] kVAs=[25.0, 25.0] %imag=0.5 %loadloss=1.5 %noloadloss=0.25 ppm_antifloat=0
New Transformer.idseta_594 phases=3 windings=2 XHL=2.0 Buses[33.1.2.3, x_594.1.2.3] conns=[delta, wye] kVs=[13.2, 0.38] kVAs=[200.0, 200.0] %imag=0.5 %loadloss=1.5 %noloadloss=0.25 ppm_antifloat=0
New Transformer.idseta_637 phases=3 windings=2 XHL=2.0 Buses[1068.1.2.3, x_637.1.2.3] conns=[delta, wye] kVs=[13.2, 0.38] kVAs=[80.0, 80.0] %imag=0.5 %loadloss=1.5 %noloadloss=0.25 ppm_antifloat=0
New Transformer.idseta_644 phases=3 windings=2 XHL=2.0 Buses[665.1.2.3, x_644.1.2.3] conns=[delta, wye] kVs=[13.2, 0.38] kVAs=[75.0, 75.0] %imag=0.5 %loadloss=1.5 %noloadloss=0.25 ppm_antifloat=0
New Transformer.idseta_656 phases=3 windings=2 XHL=2.0 Buses[1775.1.2.3, x_656.1.2.3] conns=[delta, wye] kVs=[13.2, 0.38] kVAs=[80.0, 80.0] %imag=0.5 %loadloss=1.5 %noloadloss=0.25 ppm_antifloat=0
New Transformer.idseta_659 phases=3 windings=2 XHL=2.0 Buses[578.1.2.3, x_659.1.2.3] conns=[delta, wye] kVs=[13.2, 0.38] kVAs=[16.0, 16.0] %imag=0.5 %loadloss=1.5 %noloadloss=0.25 ppm_antifloat=0
New Transformer.idseta_781 phases=3 windings=2 XHL=2.0 Buses[1069.1.2.3, x_781.1.2.3] conns=[delta, wye] kVs=[13.2, 0.38] kVAs=[80.0, 80.0] %imag=0.5 %loadloss=1.5 %noloadloss=0.25 ppm_antifloat=0
New Transformer.idseta_784 phases=3 windings=2 XHL=2.0 Buses[102.1.2.3, x_784.1.2.3] conns=[delta, wye] kVs=[13.2, 0.38] kVAs=[160.0, 160.0] %imag=0.5 %loadloss=1.5 %noloadloss=0.25 ppm_antifloat=0
New Transformer.idseta_805 phases=3 windings=2 XHL=2.0 Buses[1065.1.2.3, x_805.1.2.3] conns=[delta, wye] kVs=[13.2, 0.38] kVAs=[40.0, 40.0] %imag=0.5 %loadloss=1.5 %noloadloss=0.25 ppm_antifloat=0
New Transformer.idseta_821 phases=3 windings=2 XHL=2.0 Buses[112.1.2.3, x_821.1.2.3] conns=[delta, wye] kVs=[13.2, 0.38] kVAs=[40.0, 40.0] %imag=0.5 %loadloss=1.5 %noloadloss=0.25 ppm_antifloat=0
New Transformer.idseta_828 phases=3 windings=2 XHL=2.0 Buses[1596.1.2.3, x_828.1.2.3] conns=[delta, wye] kVs=[13.2, 0.38] kVAs=[80.0, 80.0] %imag=0.5 %loadloss=1.5 %noloadloss=0.25 ppm_antifloat=0
New Transformer.idseta_14 phases=3 windings=2 XHL=2.0 Buses[1227.1.2.3, x_14.1.2.3] conns=[delta, wye] kVs=[13.2, 0.38] kVAs=[315.0, 315.0] %imag=0.5 %loadloss=1.5 %noloadloss=0.25 ppm_antifloat=0
New Transformer.idseta_15 phases=3 windings=2 XHL=2.0 Buses[1233.1.2.3, x_15.1.2.3] conns=[delta, wye] kVs=[13.2, 0.38] kVAs=[315.0, 315.0] %imag=0.5 %loadloss=1.5 %noloadloss=0.25 ppm_antifloat=0
New Transformer.idseta_17 phases=3 windings=2 XHL=2.0 Buses[1519.1.2.3, x_17.1.2.3] conns=[delta, wye] kVs=[13.2, 0.38] kVAs=[400.0, 400.0] %imag=0.5 %loadloss=1.5 %noloadloss=0.25 ppm_antifloat=0
New Transformer.idseta_20 phases=3 windings=2 XHL=2.0 Buses[343.1.2.3, x_20.1.2.3] conns=[delta, wye] kVs=[13.2, 0.38] kVAs=[80.0, 80.0] %imag=0.5 %loadloss=1.5 %noloadloss=0.25 ppm_antifloat=0
New Transformer.idseta_50 phases=3 windings=2 XHL=2.0 Buses[1264.1.2.3, x_50.1.2.3] conns=[delta, wye] kVs=[13.2, 0.38] kVAs=[400.0, 400.0] %imag=0.5 %loadloss=1.5 %noloadloss=0.25 ppm_antifloat=0
New Transformer.idseta_51 phases=3 windings=2 XHL=2.0 Buses[1265.1.2.3, x_51.1.2.3] conns=[delta, wye] kVs=[13.2, 0.38] kVAs=[315.0, 315.0] %imag=0.5 %loadloss=1.5 %noloadloss=0.25 ppm_antifloat=0
New Transformer.idseta_1243 phases=3 windings=2 XHL=2.0 Buses[1153.1.2.3, x_1243.1.2.3] conns=[delta, wye] kVs=[13.2, 0.38] kVAs=[25.0, 25.0] %imag=0.5 %loadloss=1.5 %noloadloss=0.25 ppm_antifloat=0
New Transformer.idseta_1244 phases=3 windings=2 XHL=2.0 Buses[1157.1.2.3, x_1244.1.2.3] conns=[delta, wye] kVs=[13.2, 0.38] kVAs=[80.0, 80.0] %imag=0.5 %loadloss=1.5 %noloadloss=0.25 ppm_antifloat=0
New Transformer.idseta_1245 phases=3 windings=2 XHL=2.0 Buses[1156.1.2.3, x_1245.1.2.3] conns=[delta, wye] kVs=[13.2, 0.38] kVAs=[80.0, 80.0] %imag=0.5 %loadloss=1.5 %noloadloss=0.25 ppm_antifloat=0
New Transformer.idseta_1289 phases=3 windings=2 XHL=2.0 Buses[661.1.2.3, x_1289.1.2.3] conns=[delta, wye] kVs=[13.2, 0.38] kVAs=[100.0, 100.0] %imag=0.5 %loadloss=1.5 %noloadloss=0.25 ppm_antifloat=0
New Transformer.idseta_1318 phases=3 windings=2 XHL=2.0 Buses[1087.1.2.3, x_1318.1.2.3] conns=[delta, wye] kVs=[13.2, 0.38] kVAs=[5.0, 5.0] %imag=0.5 %loadloss=1.5 %noloadloss=0.25 ppm_antifloat=0
New Transformer.idseta_1326 phases=3 windings=2 XHL=2.0 Buses[624.1.2.3, x_1326.1.2.3] conns=[delta, wye] kVs=[13.2, 0.38] kVAs=[5.0, 5.0] %imag=0.5 %loadloss=1.5 %noloadloss=0.25 ppm_antifloat=0
New Transformer.idseta_1352 phases=3 windings=2 XHL=2.0 Buses[1132.1.2.3, x_1352.1.2.3] conns=[delta, wye] kVs=[13.2, 0.38] kVAs=[160.0, 160.0] %imag=0.5 %loadloss=1.5 %noloadloss=0.25 ppm_antifloat=0
New Transformer.idseta_5030 phases=3 windings=2 XHL=2.0 Buses[1441.1.2.3, x_5030.1.2.3] conns=[delta, wye] kVs=[33.0, 0.38] kVAs=[25.0, 25.0] %imag=0.5 %loadloss=1.5 %noloadloss=0.25 ppm_antifloat=0
New Transformer.idseta_1353 phases=3 windings=2 XHL=2.0 Buses[1151.1.2.3, x_1353.1.2.3] conns=[delta, wye] kVs=[13.2, 0.38] kVAs=[200.0, 200.0] %imag=0.5 %loadloss=1.5 %noloadloss=0.25 ppm_antifloat=0
New Transformer.idseta_1984 phases=3 windings=2 XHL=2.0 Buses[276.1.2.3, x_1984.1.2.3] conns=[delta, wye] kVs=[13.2, 0.38] kVAs=[40.0, 40.0] %imag=0.5 %loadloss=1.5 %noloadloss=0.25 ppm_antifloat=0
New Transformer.idseta_2064 phases=3 windings=2 XHL=2.0 Buses[678.1.2.3, x_2064.1.2.3] conns=[delta, wye] kVs=[13.2, 0.38] kVAs=[63.0, 63.0] %imag=0.5 %loadloss=1.5 %noloadloss=0.25 ppm_antifloat=0
New Transformer.idseta_2065 phases=3 windings=2 XHL=2.0 Buses[400.1.2.3, x_2065.1.2.3] conns=[delta, wye] kVs=[13.2, 0.38] kVAs=[10.0, 10.0] %imag=0.5 %loadloss=1.5 %noloadloss=0.25 ppm_antifloat=0
New Transformer.idseta_2073 phases=3 windings=2 XHL=2.0 Buses[1.1.2.3, x_2073.1.2.3] conns=[delta, wye] kVs=[13.2, 0.38] kVAs=[40.0, 40.0] %imag=0.5 %loadloss=1.5 %noloadloss=0.25 ppm_antifloat=0
New Transformer.idseta_2074 phases=3 windings=2 XHL=2.0 Buses[1045.1.2.3, x_2074.1.2.3] conns=[delta, wye] kVs=[13.2, 0.38] kVAs=[63.0, 63.0] %imag=0.5 %loadloss=1.5 %noloadloss=0.25 ppm_antifloat=0
New Transformer.idseta_151 phases=3 windings=2 XHL=2.0 Buses[1591.1.2.3, x_151.1.2.3] conns=[delta, wye] kVs=[13.2, 0.38] kVAs=[63.0, 63.0] %imag=0.5 %loadloss=1.5 %noloadloss=0.25 ppm_antifloat=0
New Transformer.idseta_2286 phases=3 windings=2 XHL=2.0 Buses[1161.1.2.3, x_2286.1.2.3] conns=[delta, wye] kVs=[13.2, 0.38] kVAs=[100.0, 100.0] %imag=0.5 %loadloss=1.5 %noloadloss=0.25 ppm_antifloat=0
New Transformer.idseta_81 phases=3 windings=2 XHL=2.0 Buses[1231.1.2.3, x_81.1.2.3] conns=[delta, wye] kVs=[13.2, 0.38] kVAs=[400.0, 400.0] %imag=0.5 %loadloss=1.5 %noloadloss=0.25 ppm_antifloat=0
New Transformer.idseta_82 phases=3 windings=2 XHL=2.0 Buses[1259.1.2.3, x_82.1.2.3] conns=[delta, wye] kVs=[13.2, 0.38] kVAs=[315.0, 315.0] %imag=0.5 %loadloss=1.5 %noloadloss=0.25 ppm_antifloat=0
New Transformer.idseta_83 phases=3 windings=2 XHL=2.0 Buses[546.1.2.3, x_83.1.2.3] conns=[delta, wye] kVs=[13.2, 0.38] kVAs=[315.0, 315.0] %imag=0.5 %loadloss=1.5 %noloadloss=0.25 ppm_antifloat=0
New Transformer.idseta_202 phases=3 windings=2 XHL=2.0 Buses[1515.1.2.3, x_202.1.2.3] conns=[delta, wye] kVs=[13.2, 0.38] kVAs=[800.0, 800.0] %imag=0.5 %loadloss=1.5 %noloadloss=0.25 ppm_antifloat=0
New Transformer.idseta_204 phases=3 windings=2 XHL=2.0 Buses[148.1.2.3, x_204.1.2.3] conns=[delta, wye] kVs=[13.2, 0.38] kVAs=[63.0, 63.0] %imag=0.5 %loadloss=1.5 %noloadloss=0.25 ppm_antifloat=0
New Transformer.idseta_242 phases=3 windings=2 XHL=2.0 Buses[716.1.2.3, x_242.1.2.3] conns=[delta, wye] kVs=[13.2, 0.38] kVAs=[63.0, 63.0] %imag=0.5 %loadloss=1.5 %noloadloss=0.25 ppm_antifloat=0
New Transformer.idseta_252 phases=3 windings=2 XHL=2.0 Buses[1118.1.2.3, x_252.1.2.3] conns=[delta, wye] kVs=[13.2, 0.38] kVAs=[10.0, 10.0] %imag=0.5 %loadloss=1.5 %noloadloss=0.25 ppm_antifloat=0
New Transformer.idseta_335 phases=3 windings=2 XHL=2.0 Buses[1309.1.2.3, x_335.1.2.3] conns=[delta, wye] kVs=[13.2, 0.38] kVAs=[315.0, 315.0] %imag=0.5 %loadloss=1.5 %noloadloss=0.25 ppm_antifloat=0
New Transformer.idseta_400 phases=3 windings=2 XHL=2.0 Buses[1176.1.2.3, x_400.1.2.3] conns=[delta, wye] kVs=[13.2, 0.38] kVAs=[63.0, 63.0] %imag=0.5 %loadloss=1.5 %noloadloss=0.25 ppm_antifloat=0
New Transformer.idseta_2377 phases=3 windings=2 XHL=2.0 Buses[776.1.2.3, x_2377.1.2.3] conns=[delta, wye] kVs=[13.2, 0.38] kVAs=[5.0, 5.0] %imag=0.5 %loadloss=1.5 %noloadloss=0.25 ppm_antifloat=0
New Transformer.idseta_2395 phases=3 windings=2 XHL=2.0 Buses[130.1.2.3, x_2395.1.2.3] conns=[delta, wye] kVs=[13.2, 0.38] kVAs=[25.0, 25.0] %imag=0.5 %loadloss=1.5 %noloadloss=0.25 ppm_antifloat=0
New Transformer.idseta_2548 phases=3 windings=2 XHL=2.0 Buses[149.1.2.3, x_2548.1.2.3] conns=[delta, wye] kVs=[13.2, 0.38] kVAs=[5.0, 5.0] %imag=0.5 %loadloss=1.5 %noloadloss=0.25 ppm_antifloat=0
New Transformer.idseta_2644 phases=3 windings=2 XHL=2.0 Buses[418.1.2.3, x_2644.1.2.3] conns=[delta, wye] kVs=[13.2, 0.38] kVAs=[5.0, 5.0] %imag=0.5 %loadloss=1.5 %noloadloss=0.25 ppm_antifloat=0
New Transformer.idseta_3022 phases=3 windings=2 XHL=2.0 Buses[1312.1.2.3, x_3022.1.2.3] conns=[delta, wye] kVs=[13.2, 0.38] kVAs=[63.0, 63.0] %imag=0.5 %loadloss=1.5 %noloadloss=0.25 ppm_antifloat=0
New Transformer.idseta_2645 phases=3 windings=2 XHL=2.0 Buses[638.1.2.3, x_2645.1.2.3] conns=[delta, wye] kVs=[13.2, 0.38] kVAs=[16.0, 16.0] %imag=0.5 %loadloss=1.5 %noloadloss=0.25 ppm_antifloat=0
New Transformer.idseta_2646 phases=3 windings=2 XHL=2.0 Buses[724.1.2.3, x_2646.1.2.3] conns=[delta, wye] kVs=[13.2, 0.38] kVAs=[16.0, 16.0] %imag=0.5 %loadloss=1.5 %noloadloss=0.25 ppm_antifloat=0
New Transformer.idseta_2660 phases=3 windings=2 XHL=2.0 Buses[65.1.2.3, x_2660.1.2.3] conns=[delta, wye] kVs=[13.2, 0.38] kVAs=[160.0, 160.0] %imag=0.5 %loadloss=1.5 %noloadloss=0.25 ppm_antifloat=0
New Transformer.idseta_11 phases=3 windings=2 XHL=2.0 Buses[1648.1.2.3, x_11.1.2.3] conns=[delta, wye] kVs=[13.2, 0.38] kVAs=[315.0, 315.0] %imag=0.5 %loadloss=1.5 %noloadloss=0.25 ppm_antifloat=0
New Transformer.idseta_12 phases=3 windings=2 XHL=2.0 Buses[1205.1.2.3, x_12.1.2.3] conns=[delta, wye] kVs=[13.2, 0.38] kVAs=[315.0, 315.0] %imag=0.5 %loadloss=1.5 %noloadloss=0.25 ppm_antifloat=0
New Transformer.idseta_13 phases=3 windings=2 XHL=2.0 Buses[1206.1.2.3, x_13.1.2.3] conns=[delta, wye] kVs=[13.2, 0.38] kVAs=[315.0, 315.0] %imag=0.5 %loadloss=1.5 %noloadloss=0.25 ppm_antifloat=0
New Transformer.idseta_2666 phases=3 windings=2 XHL=2.0 Buses[1012.1.2.3, x_2666.1.2.3] conns=[delta, wye] kVs=[13.2, 0.38] kVAs=[315.0, 315.0] %imag=0.5 %loadloss=1.5 %noloadloss=0.25 ppm_antifloat=0
New Transformer.idseta_2683 phases=3 windings=2 XHL=2.0 Buses[1135.1.2.3, x_2683.1.2.3] conns=[delta, wye] kVs=[13.2, 0.38] kVAs=[160.0, 160.0] %imag=0.5 %loadloss=1.5 %noloadloss=0.25 ppm_antifloat=0
New Transformer.idseta_2724 phases=3 windings=2 XHL=2.0 Buses[627.1.2.3, x_2724.1.2.3] conns=[delta, wye] kVs=[13.2, 0.38] kVAs=[5.0, 5.0] %imag=0.5 %loadloss=1.5 %noloadloss=0.25 ppm_antifloat=0
New Transformer.idseta_2748 phases=3 windings=2 XHL=2.0 Buses[1102.1.2.3, x_2748.1.2.3] conns=[delta, wye] kVs=[13.2, 0.38] kVAs=[40.0, 40.0] %imag=0.5 %loadloss=1.5 %noloadloss=0.25 ppm_antifloat=0
New Transformer.idseta_2937 phases=3 windings=2 XHL=2.0 Buses[339.1.2.3, x_2937.1.2.3] conns=[delta, wye] kVs=[13.2, 0.38] kVAs=[630.0, 630.0] %imag=0.5 %loadloss=1.5 %noloadloss=0.25 ppm_antifloat=0
New Transformer.idseta_2950 phases=3 windings=2 XHL=2.0 Buses[1138.1.2.3, x_2950.1.2.3] conns=[delta, wye] kVs=[13.2, 0.38] kVAs=[63.0, 63.0] %imag=0.5 %loadloss=1.5 %noloadloss=0.25 ppm_antifloat=0
New Transformer.idseta_2951 phases=3 windings=2 XHL=2.0 Buses[599.1.2.3, x_2951.1.2.3] conns=[delta, wye] kVs=[13.2, 0.38] kVAs=[63.0, 63.0] %imag=0.5 %loadloss=1.5 %noloadloss=0.25 ppm_antifloat=0
New Transformer.idseta_2952 phases=3 windings=2 XHL=2.0 Buses[673.1.2.3, x_2952.1.2.3] conns=[delta, wye] kVs=[13.2, 0.38] kVAs=[5.0, 5.0] %imag=0.5 %loadloss=1.5 %noloadloss=0.25 ppm_antifloat=0
New Transformer.idseta_2953 phases=3 windings=2 XHL=2.0 Buses[347.1.2.3, x_2953.1.2.3] conns=[delta, wye] kVs=[13.2, 0.38] kVAs=[25.0, 25.0] %imag=0.5 %loadloss=1.5 %noloadloss=0.25 ppm_antifloat=0
New Transformer.idseta_2954 phases=3 windings=2 XHL=2.0 Buses[612.1.2.3, x_2954.1.2.3] conns=[delta, wye] kVs=[13.2, 0.38] kVAs=[315.0, 315.0] %imag=0.5 %loadloss=1.5 %noloadloss=0.25 ppm_antifloat=0
New Transformer.idseta_2955 phases=3 windings=2 XHL=2.0 Buses[583.1.2.3, x_2955.1.2.3] conns=[delta, wye] kVs=[13.2, 0.38] kVAs=[200.0, 200.0] %imag=0.5 %loadloss=1.5 %noloadloss=0.25 ppm_antifloat=0
New Transformer.idseta_2961 phases=3 windings=2 XHL=2.0 Buses[413.1.2.3, x_2961.1.2.3] conns=[delta, wye] kVs=[13.2, 0.38] kVAs=[40.0, 40.0] %imag=0.5 %loadloss=1.5 %noloadloss=0.25 ppm_antifloat=0
New Transformer.idseta_2963 phases=3 windings=2 XHL=2.0 Buses[1772.1.2.3, x_2963.1.2.3] conns=[delta, wye] kVs=[13.2, 0.38] kVAs=[16.0, 16.0] %imag=0.5 %loadloss=1.5 %noloadloss=0.25 ppm_antifloat=0
New Transformer.idseta_2964 phases=3 windings=2 XHL=2.0 Buses[1168.1.2.3, x_2964.1.2.3] conns=[delta, wye] kVs=[13.2, 0.38] kVAs=[63.0, 63.0] %imag=0.5 %loadloss=1.5 %noloadloss=0.25 ppm_antifloat=0
New Transformer.idseta_2968 phases=3 windings=2 XHL=2.0 Buses[650.1.2.3, x_2968.1.2.3] conns=[delta, wye] kVs=[13.2, 0.38] kVAs=[75.0, 75.0] %imag=0.5 %loadloss=1.5 %noloadloss=0.25 ppm_antifloat=0
New Transformer.idseta_2969 phases=3 windings=2 XHL=2.0 Buses[604.1.2.3, x_2969.1.2.3] conns=[delta, wye] kVs=[13.2, 0.38] kVAs=[63.0, 63.0] %imag=0.5 %loadloss=1.5 %noloadloss=0.25 ppm_antifloat=0
New Transformer.idseta_2970 phases=3 windings=2 XHL=2.0 Buses[1054.1.2.3, x_2970.1.2.3] conns=[delta, wye] kVs=[13.2, 0.38] kVAs=[63.0, 63.0] %imag=0.5 %loadloss=1.5 %noloadloss=0.25 ppm_antifloat=0
New Transformer.idseta_2971 phases=3 windings=2 XHL=2.0 Buses[1056.1.2.3, x_2971.1.2.3] conns=[delta, wye] kVs=[13.2, 0.38] kVAs=[80.0, 80.0] %imag=0.5 %loadloss=1.5 %noloadloss=0.25 ppm_antifloat=0
New Transformer.idseta_2972 phases=3 windings=2 XHL=2.0 Buses[602.1.2.3, x_2972.1.2.3] conns=[delta, wye] kVs=[13.2, 0.38] kVAs=[63.0, 63.0] %imag=0.5 %loadloss=1.5 %noloadloss=0.25 ppm_antifloat=0
New Transformer.idseta_2975 phases=3 windings=2 XHL=2.0 Buses[1150.1.2.3, x_2975.1.2.3] conns=[delta, wye] kVs=[13.2, 0.38] kVAs=[160.0, 160.0] %imag=0.5 %loadloss=1.5 %noloadloss=0.25 ppm_antifloat=0
New Transformer.idseta_146 phases=3 windings=2 XHL=2.0 Buses[1789.1.2.3, x_146.1.2.3] conns=[delta, wye] kVs=[13.2, 0.38] kVAs=[63.0, 63.0] %imag=0.5 %loadloss=1.5 %noloadloss=0.25 ppm_antifloat=0
New Transformer.idseta_152 phases=3 windings=2 XHL=2.0 Buses[1576.1.2.3, x_152.1.2.3] conns=[delta, wye] kVs=[13.2, 0.38] kVAs=[80.0, 80.0] %imag=0.5 %loadloss=1.5 %noloadloss=0.25 ppm_antifloat=0
New Transformer.idseta_19 phases=3 windings=2 XHL=2.0 Buses[1305.1.2.3, x_19.1.2.3] conns=[delta, wye] kVs=[13.2, 0.38] kVAs=[40.0, 40.0] %imag=0.5 %loadloss=1.5 %noloadloss=0.25 ppm_antifloat=0
New Transformer.idseta_21 phases=3 windings=2 XHL=2.0 Buses[345.1.2.3, x_21.1.2.3] conns=[delta, wye] kVs=[13.2, 0.38] kVAs=[63.0, 63.0] %imag=0.5 %loadloss=1.5 %noloadloss=0.25 ppm_antifloat=0
New Transformer.idseta_24 phases=3 windings=2 XHL=2.0 Buses[358.1.2.3, x_24.1.2.3] conns=[delta, wye] kVs=[13.2, 0.38] kVAs=[200.0, 200.0] %imag=0.5 %loadloss=1.5 %noloadloss=0.25 ppm_antifloat=0
New Transformer.idseta_25 phases=3 windings=2 XHL=2.0 Buses[1307.1.2.3, x_25.1.2.3] conns=[delta, wye] kVs=[13.2, 0.38] kVAs=[25.0, 25.0] %imag=0.5 %loadloss=1.5 %noloadloss=0.25 ppm_antifloat=0
New Transformer.idseta_27 phases=3 windings=2 XHL=2.0 Buses[1335.1.2.3, x_27.1.2.3] conns=[delta, wye] kVs=[13.2, 0.38] kVAs=[80.0, 80.0] %imag=0.5 %loadloss=1.5 %noloadloss=0.25 ppm_antifloat=0
New Transformer.idseta_60 phases=3 windings=2 XHL=2.0 Buses[1255.1.2.3, x_60.1.2.3] conns=[delta, wye] kVs=[13.2, 0.38] kVAs=[200.0, 200.0] %imag=0.5 %loadloss=1.5 %noloadloss=0.25 ppm_antifloat=0
New Transformer.idseta_378 phases=3 windings=2 XHL=2.0 Buses[272.1.2.3, x_378.1.2.3] conns=[delta, wye] kVs=[13.2, 0.38] kVAs=[160.0, 160.0] %imag=0.5 %loadloss=1.5 %noloadloss=0.25 ppm_antifloat=0
New Transformer.idseta_401 phases=3 windings=2 XHL=2.0 Buses[1148.1.2.3, x_401.1.2.3] conns=[delta, wye] kVs=[13.2, 0.38] kVAs=[16.0, 16.0] %imag=0.5 %loadloss=1.5 %noloadloss=0.25 ppm_antifloat=0
New Transformer.idseta_2977 phases=3 windings=2 XHL=2.0 Buses[998.1.2.3, x_2977.1.2.3] conns=[delta, wye] kVs=[13.2, 0.38] kVAs=[63.0, 63.0] %imag=0.5 %loadloss=1.5 %noloadloss=0.25 ppm_antifloat=0
New Transformer.idseta_2978 phases=3 windings=2 XHL=2.0 Buses[630.1.2.3, x_2978.1.2.3] conns=[delta, wye] kVs=[13.2, 0.38] kVAs=[80.0, 80.0] %imag=0.5 %loadloss=1.5 %noloadloss=0.25 ppm_antifloat=0
New Transformer.idseta_2979 phases=3 windings=2 XHL=2.0 Buses[593.1.2.3, x_2979.1.2.3] conns=[delta, wye] kVs=[13.2, 0.38] kVAs=[100.0, 100.0] %imag=0.5 %loadloss=1.5 %noloadloss=0.25 ppm_antifloat=0
New Transformer.idseta_2981 phases=3 windings=2 XHL=2.0 Buses[95.1.2.3, x_2981.1.2.3] conns=[delta, wye] kVs=[13.2, 0.38] kVAs=[40.0, 40.0] %imag=0.5 %loadloss=1.5 %noloadloss=0.25 ppm_antifloat=0
New Transformer.idseta_2983 phases=3 windings=2 XHL=2.0 Buses[500.1.2.3, busmt_500.1.2.3] conns=[delta, delta] kVs=[13.2, 33.0] kVAs=[630.0, 630.0] %imag=0.5 %loadloss=1.5 %noloadloss=0.25 ppm_antifloat=1
New Transformer.idseta_2984 phases=3 windings=2 XHL=2.0 Buses[1173.1.2.3, x_2984.1.2.3] conns=[delta, wye] kVs=[13.2, 0.38] kVAs=[500.0, 500.0] %imag=0.5 %loadloss=1.5 %noloadloss=0.25 ppm_antifloat=0
New Transformer.idseta_2987 phases=3 windings=2 XHL=2.0 Buses[1592.1.2.3, x_2987.1.2.3] conns=[delta, wye] kVs=[13.2, 0.38] kVAs=[25.0, 25.0] %imag=0.5 %loadloss=1.5 %noloadloss=0.25 ppm_antifloat=0
New Transformer.idseta_2993 phases=3 windings=2 XHL=2.0 Buses[660.1.2.3, x_2993.1.2.3] conns=[delta, wye] kVs=[13.2, 0.38] kVAs=[5.0, 5.0] %imag=0.5 %loadloss=1.5 %noloadloss=0.25 ppm_antifloat=0
New Transformer.idseta_2996 phases=3 windings=2 XHL=2.0 Buses[616.1.2.3, x_2996.1.2.3] conns=[delta, wye] kVs=[13.2, 0.38] kVAs=[315.0, 315.0] %imag=0.5 %loadloss=1.5 %noloadloss=0.25 ppm_antifloat=0
New Transformer.idseta_2997 phases=3 windings=2 XHL=2.0 Buses[1579.1.2.3, x_2997.1.2.3] conns=[delta, wye] kVs=[13.2, 0.38] kVAs=[100.0, 100.0] %imag=0.5 %loadloss=1.5 %noloadloss=0.25 ppm_antifloat=0
New Transformer.idseta_2999 phases=3 windings=2 XHL=2.0 Buses[703.1.2.3, x_2999.1.2.3] conns=[delta, wye] kVs=[13.2, 0.38] kVAs=[25.0, 25.0] %imag=0.5 %loadloss=1.5 %noloadloss=0.25 ppm_antifloat=0
New Transformer.idseta_33 phases=3 windings=2 XHL=2.0 Buses[1336.1.2.3, x_33.1.2.3] conns=[delta, wye] kVs=[13.2, 0.38] kVAs=[160.0, 160.0] %imag=0.5 %loadloss=1.5 %noloadloss=0.25 ppm_antifloat=0
New Transformer.idseta_45 phases=3 windings=2 XHL=2.0 Buses[397.1.2.3, x_45.1.2.3] conns=[delta, wye] kVs=[13.2, 0.38] kVAs=[400.0, 400.0] %imag=0.5 %loadloss=1.5 %noloadloss=0.25 ppm_antifloat=0
New Transformer.idseta_47 phases=3 windings=2 XHL=2.0 Buses[383.1.2.3, x_47.1.2.3] conns=[delta, wye] kVs=[13.2, 0.38] kVAs=[100.0, 100.0] %imag=0.5 %loadloss=1.5 %noloadloss=0.25 ppm_antifloat=0
New Transformer.idseta_3000 phases=3 windings=2 XHL=2.0 Buses[360.1.2.3, x_3000.1.2.3] conns=[delta, wye] kVs=[13.2, 0.38] kVAs=[40.0, 40.0] %imag=0.5 %loadloss=1.5 %noloadloss=0.25 ppm_antifloat=0
New Transformer.idseta_3001 phases=3 windings=2 XHL=2.0 Buses[128.1.2.3, x_3001.1.2.3] conns=[delta, wye] kVs=[13.2, 0.38] kVAs=[80.0, 80.0] %imag=0.5 %loadloss=1.5 %noloadloss=0.25 ppm_antifloat=0
New Transformer.idseta_3002 phases=3 windings=2 XHL=2.0 Buses[138.1.2.3, x_3002.1.2.3] conns=[delta, wye] kVs=[13.2, 0.38] kVAs=[63.0, 63.0] %imag=0.5 %loadloss=1.5 %noloadloss=0.25 ppm_antifloat=0
New Transformer.idseta_3003 phases=3 windings=2 XHL=2.0 Buses[1316.1.2.3, x_3003.1.2.3] conns=[delta, wye] kVs=[13.2, 0.38] kVAs=[160.0, 160.0] %imag=0.5 %loadloss=1.5 %noloadloss=0.25 ppm_antifloat=0
New Transformer.idseta_3006 phases=3 windings=2 XHL=2.0 Buses[1291.1.2.3, x_3006.1.2.3] conns=[delta, wye] kVs=[13.2, 0.38] kVAs=[200.0, 200.0] %imag=0.5 %loadloss=1.5 %noloadloss=0.25 ppm_antifloat=0
New Transformer.idseta_3009 phases=3 windings=2 XHL=2.0 Buses[209.1.2.3, x_3009.1.2.3] conns=[delta, wye] kVs=[13.2, 0.38] kVAs=[315.0, 315.0] %imag=0.5 %loadloss=1.5 %noloadloss=0.25 ppm_antifloat=0
New Transformer.idseta_3010 phases=3 windings=2 XHL=2.0 Buses[728.1.2.3, x_3010.1.2.3] conns=[delta, wye] kVs=[13.2, 0.38] kVAs=[25.0, 25.0] %imag=0.5 %loadloss=1.5 %noloadloss=0.25 ppm_antifloat=0
New Transformer.idseta_3011 phases=3 windings=2 XHL=2.0 Buses[63.1.2.3, x_3011.1.2.3] conns=[delta, wye] kVs=[13.2, 0.38] kVAs=[40.0, 40.0] %imag=0.5 %loadloss=1.5 %noloadloss=0.25 ppm_antifloat=0
New Transformer.idseta_3012 phases=3 windings=2 XHL=2.0 Buses[1273.1.2.3, x_3012.1.2.3] conns=[delta, wye] kVs=[13.2, 0.38] kVAs=[125.0, 125.0] %imag=0.5 %loadloss=1.5 %noloadloss=0.25 ppm_antifloat=0
New Transformer.idseta_3013 phases=3 windings=2 XHL=2.0 Buses[1029.1.2.3, x_3013.1.2.3] conns=[delta, wye] kVs=[13.2, 0.38] kVAs=[160.0, 160.0] %imag=0.5 %loadloss=1.5 %noloadloss=0.25 ppm_antifloat=0
New Transformer.idseta_3014 phases=3 windings=2 XHL=2.0 Buses[1074.1.2.3, x_3014.1.2.3] conns=[delta, wye] kVs=[13.2, 0.38] kVAs=[40.0, 40.0] %imag=0.5 %loadloss=1.5 %noloadloss=0.25 ppm_antifloat=0
New Transformer.idseta_3015 phases=3 windings=2 XHL=2.0 Buses[1599.1.2.3, x_3015.1.2.3] conns=[delta, wye] kVs=[13.2, 0.38] kVAs=[63.0, 63.0] %imag=0.5 %loadloss=1.5 %noloadloss=0.25 ppm_antifloat=0
New Transformer.idseta_3016 phases=3 windings=2 XHL=2.0 Buses[1099.1.2.3, x_3016.1.2.3] conns=[delta, wye] kVs=[13.2, 0.38] kVAs=[100.0, 100.0] %imag=0.5 %loadloss=1.5 %noloadloss=0.25 ppm_antifloat=0
New Transformer.idseta_3017 phases=3 windings=2 XHL=2.0 Buses[1318.1.2.3, x_3017.1.2.3] conns=[delta, wye] kVs=[13.2, 0.38] kVAs=[100.0, 100.0] %imag=0.5 %loadloss=1.5 %noloadloss=0.25 ppm_antifloat=0
New Transformer.idseta_3019 phases=3 windings=2 XHL=2.0 Buses[304.1.2.3, x_3019.1.2.3] conns=[delta, wye] kVs=[13.2, 0.38] kVAs=[40.0, 40.0] %imag=0.5 %loadloss=1.5 %noloadloss=0.25 ppm_antifloat=0
New Transformer.idseta_3020 phases=3 windings=2 XHL=2.0 Buses[1066.1.2.3, x_3020.1.2.3] conns=[delta, wye] kVs=[13.2, 0.38] kVAs=[63.0, 63.0] %imag=0.5 %loadloss=1.5 %noloadloss=0.25 ppm_antifloat=0
New Transformer.idseta_3021 phases=3 windings=2 XHL=2.0 Buses[308.1.2.3, x_3021.1.2.3] conns=[delta, wye] kVs=[13.2, 0.38] kVAs=[315.0, 315.0] %imag=0.5 %loadloss=1.5 %noloadloss=0.25 ppm_antifloat=0
New Transformer.idseta_3117 phases=3 windings=2 XHL=2.0 Buses[1086.1.2.3, x_3117.1.2.3] conns=[delta, wye] kVs=[13.2, 0.38] kVAs=[80.0, 80.0] %imag=0.5 %loadloss=1.5 %noloadloss=0.25 ppm_antifloat=0
New Transformer.idseta_5001 phases=3 windings=2 XHL=2.0 Buses[1438.1.2.3, x_5001.1.2.3] conns=[delta, wye] kVs=[33.0, 0.38] kVAs=[25.0, 25.0] %imag=0.5 %loadloss=1.5 %noloadloss=0.25 ppm_antifloat=0
New Transformer.idseta_5002 phases=3 windings=2 XHL=2.0 Buses[1442.1.2.3, x_5002.1.2.3] conns=[delta, wye] kVs=[33.0, 0.38] kVAs=[16.0, 16.0] %imag=0.5 %loadloss=1.5 %noloadloss=0.25 ppm_antifloat=0
New Transformer.idseta_5007 phases=3 windings=2 XHL=2.0 Buses[515.1.2.3, x_5007.1.2.3] conns=[delta, wye] kVs=[33.0, 0.38] kVAs=[5.0, 5.0] %imag=0.5 %loadloss=1.5 %noloadloss=0.25 ppm_antifloat=0
New Transformer.idseta_48 phases=3 windings=2 XHL=2.0 Buses[1606.1.2.3, x_48.1.2.3] conns=[delta, wye] kVs=[13.2, 0.38] kVAs=[200.0, 200.0] %imag=0.5 %loadloss=1.5 %noloadloss=0.25 ppm_antifloat=0
New Transformer.idseta_49 phases=3 windings=2 XHL=2.0 Buses[1267.1.2.3, x_49.1.2.3] conns=[delta, wye] kVs=[13.2, 0.38] kVAs=[315.0, 315.0] %imag=0.5 %loadloss=1.5 %noloadloss=0.25 ppm_antifloat=0
New Transformer.idseta_52 phases=3 windings=2 XHL=2.0 Buses[317.1.2.3, x_52.1.2.3] conns=[delta, wye] kVs=[13.2, 0.38] kVAs=[315.0, 315.0] %imag=0.5 %loadloss=1.5 %noloadloss=0.25 ppm_antifloat=0
New Transformer.idseta_53 phases=3 windings=2 XHL=2.0 Buses[1270.1.2.3, x_53.1.2.3] conns=[delta, wye] kVs=[13.2, 0.38] kVAs=[200.0, 200.0] %imag=0.5 %loadloss=1.5 %noloadloss=0.25 ppm_antifloat=0
New Transformer.idseta_54 phases=3 windings=2 XHL=2.0 Buses[1547.1.2.3, x_54.1.2.3] conns=[delta, wye] kVs=[13.2, 0.38] kVAs=[315.0, 315.0] %imag=0.5 %loadloss=1.5 %noloadloss=0.25 ppm_antifloat=0
New Transformer.idseta_55 phases=3 windings=2 XHL=2.0 Buses[260.1.2.3, x_55.1.2.3] conns=[delta, wye] kVs=[13.2, 0.38] kVAs=[315.0, 315.0] %imag=0.5 %loadloss=1.5 %noloadloss=0.25 ppm_antifloat=0
New Transformer.idseta_56 phases=3 windings=2 XHL=2.0 Buses[1262.1.2.3, x_56.1.2.3] conns=[delta, wye] kVs=[13.2, 0.38] kVAs=[315.0, 315.0] %imag=0.5 %loadloss=1.5 %noloadloss=0.25 ppm_antifloat=0
New Transformer.idseta_5008 phases=3 windings=2 XHL=2.0 Buses[1490.1.2.3, x_5008.1.2.3] conns=[delta, wye] kVs=[33.0, 0.38] kVAs=[25.0, 25.0] %imag=0.5 %loadloss=1.5 %noloadloss=0.25 ppm_antifloat=0
New Transformer.idseta_5009 phases=3 windings=2 XHL=2.0 Buses[539.1.2.3, x_5009.1.2.3] conns=[delta, wye] kVs=[33.0, 0.38] kVAs=[63.0, 63.0] %imag=0.5 %loadloss=1.5 %noloadloss=0.25 ppm_antifloat=0
New Transformer.idseta_5012 phases=3 windings=2 XHL=2.0 Buses[480.1.2.3, x_5012.1.2.3] conns=[delta, wye] kVs=[13.2, 0.38] kVAs=[5.0, 5.0] %imag=0.5 %loadloss=1.5 %noloadloss=0.25 ppm_antifloat=0
New Transformer.idseta_5013 phases=3 windings=2 XHL=2.0 Buses[893.1.2.3, x_5013.1.2.3] conns=[delta, wye] kVs=[13.2, 0.38] kVAs=[10.0, 10.0] %imag=0.5 %loadloss=1.5 %noloadloss=0.25 ppm_antifloat=0
New Transformer.idseta_5014 phases=3 windings=2 XHL=2.0 Buses[547.1.2.3, busmt_547.1.2.3] conns=[delta, delta] kVs=[33.0, 13.2] kVAs=[80.0, 80.0] %imag=0.5 %loadloss=1.5 %noloadloss=0.25 ppm_antifloat=1
New Transformer.idseta_5015 phases=3 windings=2 XHL=2.0 Buses[896.1.2.3, x_5015.1.2.3] conns=[delta, wye] kVs=[13.2, 0.38] kVAs=[100.0, 100.0] %imag=0.5 %loadloss=1.5 %noloadloss=0.25 ppm_antifloat=0
New Transformer.idseta_5016 phases=3 windings=2 XHL=2.0 Buses[892.1.2.3, x_5016.1.2.3] conns=[delta, wye] kVs=[13.2, 0.38] kVAs=[10.0, 10.0] %imag=0.5 %loadloss=1.5 %noloadloss=0.25 ppm_antifloat=0
New Transformer.idseta_5017 phases=3 windings=2 XHL=2.0 Buses[489.1.2.3, x_5017.1.2.3] conns=[delta, wye] kVs=[13.2, 0.38] kVAs=[5.0, 5.0] %imag=0.5 %loadloss=1.5 %noloadloss=0.25 ppm_antifloat=0
New Transformer.idseta_5018 phases=3 windings=2 XHL=2.0 Buses[885.1.2.3, x_5018.1.2.3] conns=[delta, wye] kVs=[13.2, 0.38] kVAs=[5.0, 5.0] %imag=0.5 %loadloss=1.5 %noloadloss=0.25 ppm_antifloat=0
New Transformer.idseta_5019 phases=3 windings=2 XHL=2.0 Buses[479.1.2.3, x_5019.1.2.3] conns=[delta, wye] kVs=[13.2, 0.38] kVAs=[63.0, 63.0] %imag=0.5 %loadloss=1.5 %noloadloss=0.25 ppm_antifloat=0
New Transformer.idseta_5025 phases=3 windings=2 XHL=2.0 Buses[872.1.2.3, x_5025.1.2.3] conns=[delta, wye] kVs=[13.2, 0.38] kVAs=[16.0, 16.0] %imag=0.5 %loadloss=1.5 %noloadloss=0.25 ppm_antifloat=0
New Transformer.idseta_5026 phases=3 windings=2 XHL=2.0 Buses[1427.1.2.3, x_5026.1.2.3] conns=[delta, wye] kVs=[33.0, 0.38] kVAs=[16.0, 16.0] %imag=0.5 %loadloss=1.5 %noloadloss=0.25 ppm_antifloat=0
New Transformer.idseta_5027 phases=3 windings=2 XHL=2.0 Buses[880.1.2.3, x_5027.1.2.3] conns=[delta, wye] kVs=[13.2, 0.38] kVAs=[10.0, 10.0] %imag=0.5 %loadloss=1.5 %noloadloss=0.25 ppm_antifloat=0
New Transformer.idseta_5028 phases=3 windings=2 XHL=2.0 Buses[488.1.2.3, x_5028.1.2.3] conns=[delta, wye] kVs=[13.2, 0.38] kVAs=[5.0, 5.0] %imag=0.5 %loadloss=1.5 %noloadloss=0.25 ppm_antifloat=0
New Transformer.idseta_57 phases=3 windings=2 XHL=2.0 Buses[1225.1.2.3, x_57.1.2.3] conns=[delta, wye] kVs=[13.2, 0.38] kVAs=[315.0, 315.0] %imag=0.5 %loadloss=1.5 %noloadloss=0.25 ppm_antifloat=0
New Transformer.idseta_59 phases=3 windings=2 XHL=2.0 Buses[1256.1.2.3, x_59.1.2.3] conns=[delta, wye] kVs=[13.2, 0.38] kVAs=[315.0, 315.0] %imag=0.5 %loadloss=1.5 %noloadloss=0.25 ppm_antifloat=0
New Transformer.idseta_61 phases=3 windings=2 XHL=2.0 Buses[1242.1.2.3, x_61.1.2.3] conns=[delta, wye] kVs=[13.2, 0.38] kVAs=[250.0, 250.0] %imag=0.5 %loadloss=1.5 %noloadloss=0.25 ppm_antifloat=0
New Transformer.idseta_71 phases=3 windings=2 XHL=2.0 Buses[1207.1.2.3, x_71.1.2.3] conns=[delta, wye] kVs=[13.2, 0.38] kVAs=[200.0, 200.0] %imag=0.5 %loadloss=1.5 %noloadloss=0.25 ppm_antifloat=0
New Transformer.idseta_72 phases=3 windings=2 XHL=2.0 Buses[329.1.2.3, x_72.1.2.3] conns=[delta, wye] kVs=[13.2, 0.38] kVAs=[200.0, 200.0] %imag=0.5 %loadloss=1.5 %noloadloss=0.25 ppm_antifloat=0
New Transformer.idseta_75 phases=3 windings=2 XHL=2.0 Buses[1200.1.2.3, x_75.1.2.3] conns=[delta, wye] kVs=[13.2, 0.38] kVAs=[100.0, 100.0] %imag=0.5 %loadloss=1.5 %noloadloss=0.25 ppm_antifloat=0
New Transformer.idseta_76 phases=3 windings=2 XHL=2.0 Buses[1218.1.2.3, x_76.1.2.3] conns=[delta, wye] kVs=[13.2, 0.38] kVAs=[315.0, 315.0] %imag=0.5 %loadloss=1.5 %noloadloss=0.25 ppm_antifloat=0
New Transformer.idseta_77 phases=3 windings=2 XHL=2.0 Buses[197.1.2.3, x_77.1.2.3] conns=[delta, wye] kVs=[13.2, 0.38] kVAs=[200.0, 200.0] %imag=0.5 %loadloss=1.5 %noloadloss=0.25 ppm_antifloat=0
New Transformer.idseta_78 phases=3 windings=2 XHL=2.0 Buses[1271.1.2.3, x_78.1.2.3] conns=[delta, wye] kVs=[13.2, 0.38] kVAs=[200.0, 200.0] %imag=0.5 %loadloss=1.5 %noloadloss=0.25 ppm_antifloat=0
New Transformer.idseta_433 phases=3 windings=2 XHL=2.0 Buses[1004.1.2.3, x_433.1.2.3] conns=[delta, wye] kVs=[13.2, 0.38] kVAs=[100.0, 100.0] %imag=0.5 %loadloss=1.5 %noloadloss=0.25 ppm_antifloat=0
New Transformer.idseta_439 phases=3 windings=2 XHL=2.0 Buses[1587.1.2.3, x_439.1.2.3] conns=[delta, wye] kVs=[13.2, 0.38] kVAs=[63.0, 63.0] %imag=0.5 %loadloss=1.5 %noloadloss=0.25 ppm_antifloat=0
New Transformer.idseta_505 phases=3 windings=2 XHL=2.0 Buses[1308.1.2.3, x_505.1.2.3] conns=[delta, wye] kVs=[13.2, 0.38] kVAs=[250.0, 250.0] %imag=0.5 %loadloss=1.5 %noloadloss=0.25 ppm_antifloat=0
New Transformer.idseta_520 phases=3 windings=2 XHL=2.0 Buses[398.1.2.3, x_520.1.2.3] conns=[delta, wye] kVs=[13.2, 0.38] kVAs=[100.0, 100.0] %imag=0.5 %loadloss=1.5 %noloadloss=0.25 ppm_antifloat=0
New Transformer.idseta_523 phases=3 windings=2 XHL=2.0 Buses[1183.1.2.3, x_523.1.2.3] conns=[delta, wye] kVs=[13.2, 0.38] kVAs=[75.0, 75.0] %imag=0.5 %loadloss=1.5 %noloadloss=0.25 ppm_antifloat=0
New Transformer.idseta_524 phases=3 windings=2 XHL=2.0 Buses[11.1.2.3, x_524.1.2.3] conns=[delta, wye] kVs=[13.2, 0.38] kVAs=[63.0, 63.0] %imag=0.5 %loadloss=1.5 %noloadloss=0.25 ppm_antifloat=0
New Transformer.idseta_527 phases=3 windings=2 XHL=2.0 Buses[1508.1.2.3, x_527.1.2.3] conns=[delta, wye] kVs=[13.2, 0.38] kVAs=[100.0, 100.0] %imag=0.5 %loadloss=1.5 %noloadloss=0.25 ppm_antifloat=0
New Transformer.idseta_833 phases=3 windings=2 XHL=2.0 Buses[1182.1.2.3, x_833.1.2.3] conns=[delta, wye] kVs=[13.2, 0.38] kVAs=[80.0, 80.0] %imag=0.5 %loadloss=1.5 %noloadloss=0.25 ppm_antifloat=0
New Transformer.idseta_835 phases=3 windings=2 XHL=2.0 Buses[577.1.2.3, x_835.1.2.3] conns=[delta, wye] kVs=[13.2, 0.38] kVAs=[160.0, 160.0] %imag=0.5 %loadloss=1.5 %noloadloss=0.25 ppm_antifloat=0
New Transformer.idseta_840 phases=3 windings=2 XHL=2.0 Buses[1189.1.2.3, x_840.1.2.3] conns=[delta, wye] kVs=[13.2, 0.38] kVAs=[160.0, 160.0] %imag=0.5 %loadloss=1.5 %noloadloss=0.25 ppm_antifloat=0
New Transformer.idseta_859 phases=3 windings=2 XHL=2.0 Buses[1034.1.2.3, x_859.1.2.3] conns=[delta, wye] kVs=[13.2, 0.38] kVAs=[63.0, 63.0] %imag=0.5 %loadloss=1.5 %noloadloss=0.25 ppm_antifloat=0
New Transformer.idseta_956 phases=3 windings=2 XHL=2.0 Buses[641.1.2.3, x_956.1.2.3] conns=[delta, wye] kVs=[13.2, 0.38] kVAs=[63.0, 63.0] %imag=0.5 %loadloss=1.5 %noloadloss=0.25 ppm_antifloat=0
New Transformer.idseta_957 phases=3 windings=2 XHL=2.0 Buses[640.1.2.3, x_957.1.2.3] conns=[delta, wye] kVs=[13.2, 0.38] kVAs=[40.0, 40.0] %imag=0.5 %loadloss=1.5 %noloadloss=0.25 ppm_antifloat=0
New Transformer.idseta_958 phases=3 windings=2 XHL=2.0 Buses[684.1.2.3, x_958.1.2.3] conns=[delta, wye] kVs=[13.2, 0.38] kVAs=[80.0, 80.0] %imag=0.5 %loadloss=1.5 %noloadloss=0.25 ppm_antifloat=0
New Transformer.idseta_1067 phases=3 windings=2 XHL=2.0 Buses[726.1.2.3, x_1067.1.2.3] conns=[delta, wye] kVs=[13.2, 0.38] kVAs=[100.0, 100.0] %imag=0.5 %loadloss=1.5 %noloadloss=0.25 ppm_antifloat=0
New Transformer.idseta_1106 phases=3 windings=2 XHL=2.0 Buses[1137.1.2.3, x_1106.1.2.3] conns=[delta, wye] kVs=[13.2, 0.38] kVAs=[100.0, 100.0] %imag=0.5 %loadloss=1.5 %noloadloss=0.25 ppm_antifloat=0
New Transformer.idseta_1231 phases=3 windings=2 XHL=2.0 Buses[1145.1.2.3, x_1231.1.2.3] conns=[delta, wye] kVs=[13.2, 0.38] kVAs=[5.0, 5.0] %imag=0.5 %loadloss=1.5 %noloadloss=0.25 ppm_antifloat=0
New Transformer.idseta_1355 phases=3 windings=2 XHL=2.0 Buses[1128.1.2.3, x_1355.1.2.3] conns=[delta, wye] kVs=[13.2, 0.38] kVAs=[80.0, 80.0] %imag=0.5 %loadloss=1.5 %noloadloss=0.25 ppm_antifloat=0
New Transformer.idseta_1357 phases=3 windings=2 XHL=2.0 Buses[659.1.2.3, x_1357.1.2.3] conns=[delta, wye] kVs=[13.2, 0.38] kVAs=[5.0, 5.0] %imag=0.5 %loadloss=1.5 %noloadloss=0.25 ppm_antifloat=0
New Transformer.idseta_1374 phases=3 windings=2 XHL=2.0 Buses[49.1.2.3, x_1374.1.2.3] conns=[delta, wye] kVs=[13.2, 0.38] kVAs=[100.0, 100.0] %imag=0.5 %loadloss=1.5 %noloadloss=0.25 ppm_antifloat=0
New Transformer.idseta_1382 phases=3 windings=2 XHL=2.0 Buses[656.1.2.3, x_1382.1.2.3] conns=[delta, wye] kVs=[13.2, 0.38] kVAs=[40.0, 40.0] %imag=0.5 %loadloss=1.5 %noloadloss=0.25 ppm_antifloat=0
New Transformer.idseta_1488 phases=3 windings=2 XHL=2.0 Buses[717.1.2.3, x_1488.1.2.3] conns=[delta, wye] kVs=[13.2, 0.38] kVAs=[80.0, 80.0] %imag=0.5 %loadloss=1.5 %noloadloss=0.25 ppm_antifloat=0
New Transformer.idseta_1649 phases=3 windings=2 XHL=2.0 Buses[706.1.2.3, x_1649.1.2.3] conns=[delta, wye] kVs=[13.2, 0.38] kVAs=[5.0, 5.0] %imag=0.5 %loadloss=1.5 %noloadloss=0.25 ppm_antifloat=0
New Transformer.idseta_1759 phases=3 windings=2 XHL=2.0 Buses[729.1.2.3, x_1759.1.2.3] conns=[delta, wye] kVs=[13.2, 0.38] kVAs=[63.0, 63.0] %imag=0.5 %loadloss=1.5 %noloadloss=0.25 ppm_antifloat=0
New Transformer.idseta_1874 phases=3 windings=2 XHL=2.0 Buses[1052.1.2.3, x_1874.1.2.3] conns=[delta, wye] kVs=[13.2, 0.38] kVAs=[40.0, 40.0] %imag=0.5 %loadloss=1.5 %noloadloss=0.25 ppm_antifloat=0
New Transformer.idseta_1945 phases=3 windings=2 XHL=2.0 Buses[124.1.2.3, x_1945.1.2.3] conns=[delta, wye] kVs=[13.2, 0.38] kVAs=[200.0, 200.0] %imag=0.5 %loadloss=1.5 %noloadloss=0.25 ppm_antifloat=0
New Transformer.idseta_1951 phases=3 windings=2 XHL=2.0 Buses[1169.1.2.3, x_1951.1.2.3] conns=[delta, wye] kVs=[13.2, 0.38] kVAs=[40.0, 40.0] %imag=0.5 %loadloss=1.5 %noloadloss=0.25 ppm_antifloat=0
New Transformer.idseta_1973 phases=3 windings=2 XHL=2.0 Buses[408.1.2.3, x_1973.1.2.3] conns=[delta, wye] kVs=[13.2, 0.38] kVAs=[40.0, 40.0] %imag=0.5 %loadloss=1.5 %noloadloss=0.25 ppm_antifloat=0
New Transformer.idseta_22 phases=3 windings=2 XHL=2.0 Buses[274.1.2.3, x_22.1.2.3] conns=[delta, wye] kVs=[13.2, 0.38] kVAs=[100.0, 100.0] %imag=0.5 %loadloss=1.5 %noloadloss=0.25 ppm_antifloat=0
New Transformer.idseta_58 phases=3 windings=2 XHL=2.0 Buses[214.1.2.3, x_58.1.2.3] conns=[delta, wye] kVs=[13.2, 0.38] kVAs=[160.0, 160.0] %imag=0.5 %loadloss=1.5 %noloadloss=0.25 ppm_antifloat=0
New Transformer.idseta_560 phases=3 windings=2 XHL=2.0 Buses[104.1.2.3, x_560.1.2.3] conns=[delta, wye] kVs=[13.2, 0.38] kVAs=[100.0, 100.0] %imag=0.5 %loadloss=1.5 %noloadloss=0.25 ppm_antifloat=0
New Transformer.idseta_2109 phases=3 windings=2 XHL=2.0 Buses[985.1.2.3, x_2109.1.2.3] conns=[delta, wye] kVs=[13.2, 0.38] kVAs=[40.0, 40.0] %imag=0.5 %loadloss=1.5 %noloadloss=0.25 ppm_antifloat=0
New Transformer.idseta_2228 phases=3 windings=2 XHL=2.0 Buses[1776.1.2.3, x_2228.1.2.3] conns=[delta, wye] kVs=[13.2, 0.38] kVAs=[5.0, 5.0] %imag=0.5 %loadloss=1.5 %noloadloss=0.25 ppm_antifloat=0
New Transformer.idseta_2242 phases=3 windings=2 XHL=2.0 Buses[452.1.2.3, x_2242.1.2.3] conns=[delta, wye] kVs=[13.2, 0.38] kVAs=[50.0, 50.0] %imag=0.5 %loadloss=1.5 %noloadloss=0.25 ppm_antifloat=0
New Transformer.idseta_2258 phases=3 windings=2 XHL=2.0 Buses[1164.1.2.3, x_2258.1.2.3] conns=[delta, wye] kVs=[13.2, 0.38] kVAs=[80.0, 80.0] %imag=0.5 %loadloss=1.5 %noloadloss=0.25 ppm_antifloat=0
New Transformer.idseta_2792 phases=3 windings=2 XHL=2.0 Buses[688.1.2.3, x_2792.1.2.3] conns=[delta, wye] kVs=[13.2, 0.38] kVAs=[200.0, 200.0] %imag=0.5 %loadloss=1.5 %noloadloss=0.25 ppm_antifloat=0
New Transformer.idseta_2794 phases=3 windings=2 XHL=2.0 Buses[1796.1.2.3, x_2794.1.2.3] conns=[delta, wye] kVs=[13.2, 0.38] kVAs=[63.0, 63.0] %imag=0.5 %loadloss=1.5 %noloadloss=0.25 ppm_antifloat=0
New Transformer.idseta_2795 phases=3 windings=2 XHL=2.0 Buses[600.1.2.3, x_2795.1.2.3] conns=[delta, wye] kVs=[13.2, 0.38] kVAs=[40.0, 40.0] %imag=0.5 %loadloss=1.5 %noloadloss=0.25 ppm_antifloat=0
...
